// Spice models for kojak siren

.model BC546B NPN (IS=7.59E-15 VAF=73.4 BF=480 IKF=0.0962 NE=1.2665 ISE=3.278E-15 IKR=0.03 ISC=2.00E-13 NC=1.2 NR=1 BR=5 RC=0.25 CJC=6.33E-12 FC=0.5 MJC=0.33 VJC=0.65 CJE=1.25E-11 MJE=0.55 VJE=0.65 TF=4.26E-10 ITF=0.6 VTF=3 XTF=20 RB=100 IRB=0.0001 RBM=10 RE=0.5 TR=1.50E-07)

.model BC557C PNP (IS=5.83E-14 NF=1.009 ISE=3.88E-15 NE=1.408 BF=480 IKF=0.08039 VAF=26.03 NR=1.006 ISC=4.01E-14 NC=1.313 BR=12.45 IKR=0.07238 VAR=6.717 RB=1 IRB=1.00E-06 RBM=1 RE=0.5685 RC=0.6257 XTB=0 EG=1.11 XTI=3 CJE=1.26E-11 VJE=0.3809 MJE=0.3545 TF=5.23E-10 XTF=4.339 VTF=5.425 ITF=0.1896 PTF=0 CJC=7.80E-12 VJC=0.5897 MJC=0.4569 XCJC=0.6288 TR=1.00E-32 CJS=0 VJS=0.75 MJS=0.333 FC=0.5729)

.model TIP31C NPN(
+ IS=599.45E-15
+ BF=293.26
+ VAF=100
+ IKF=1.1282
+ ISE=115.04E-12
+ NE=1.6712
+ BR=.47484
+ VAR=100
+ IKR=10.010E-3
+ ISC=1.9741E-12
+ NC=2.2358
+ RB=.94535
+ RC=.17134
+ CJE=127.09E-12
+ VJE=.61862
+ MJE=.38312
+ CJC=73.799E-12
+ VJC=.35
+ MJC=.34523
+ TF=24.699E-9
+ XTF=31.211
+ VTF=64.741
+ ITF=39.954
+ TR=10.000E-9)

// RED GaAs LED: Vf=1.7V Vr=4V If=40mA trr=3uS
.MODEL LED1 D (IS=93.2P RS=42M N=3.73 BV=4 IBV=10U CJO=2.97P VJ=.75 M=.333 TT=4.32U)


